 INFO
nunit      1    1    1
unit   cell
celltype   convcell
shape   parapipedal
 END_INFO
 DIM-GROUP
           3           4
 PRIMVEC
    2.5850000111   -4.4010000058    0.0000000000
    2.5850000111    4.4010000058    0.0000000000
    0.0000000000    0.0000000000    5.1253999263
 CONVVEC
    5.1700000222    0.0000000000    0.0000000000
    0.0000000000    8.8020000116    0.0000000000
    0.0000000000    0.0000000000    5.1253999263
 PRIMCOORD
          12           1
 76      0.0000000000     2.9339999744     0.0000000000
 76      0.0000000000    -2.9339999744     0.0000000000
  3      0.0000000000     0.0000000000     0.0000000000
  3      0.0000000000    -1.5931620021    -2.5626999631
  3      0.0000000000     1.5931620021    -2.5626999631
  3      0.0000000000    -4.4010000058    -2.5626999631
  8     -1.3183500057    -1.5755580021    -1.2352213822
  8      1.3183500057     1.5755580021     1.2352213822
  8      1.3183500057    -1.5755580021     1.2352213822
  8     -1.3183500057     1.5755580021    -1.2352213822
  8      1.3183500057     0.0000000000    -1.1634657833
  8     -1.3183500057     0.0000000000     1.1634657833
 CONVCOORD
          12           2
 76      0.0000000000     2.9339999744     0.0000000000
 76      2.5850000111     7.3349999802     0.0000000000
 76      0.0000000000    -2.9339999744     0.0000000000
 76      2.5850000111     1.4670000314     0.0000000000
  3      0.0000000000     0.0000000000     0.0000000000
  3      2.5850000111     4.4010000058     0.0000000000
  3      0.0000000000    -1.5931620021    -2.5626999631
  3      2.5850000111     2.8078380037    -2.5626999631
  3      0.0000000000     1.5931620021    -2.5626999631
  3      2.5850000111     5.9941620079    -2.5626999631
  3      0.0000000000    -4.4010000058    -2.5626999631
  3      2.5850000111    -0.0000000000    -2.5626999631
  8     -1.3183500057    -1.5755580021    -1.2352213822
  8      1.2666500054     2.8254420037    -1.2352213822
  8      1.3183500057     1.5755580021     1.2352213822
  8      3.9033500167     5.9765580078     1.2352213822
  8      1.3183500057    -1.5755580021     1.2352213822
  8      3.9033500167     2.8254420037     1.2352213822
  8     -1.3183500057     1.5755580021    -1.2352213822
  8      1.2666500054     5.9765580078    -1.2352213822
  8      1.3183500057     0.0000000000    -1.1634657833
  8      3.9033500167     4.4010000058    -1.1634657833
  8     -1.3183500057     0.0000000000     1.1634657833
  8      1.2666500054     4.4010000058     1.1634657833
 RECIP-PRIMVEC
    0.1934235968   -0.1136105429    0.0000000000

    0.1934235968    0.1136105429   -0.0000000000

   -0.0000000000    0.0000000000    0.1951067262

 RECIP-CONVVEC
    0.1934235968    0.0000000000    0.0000000000

    0.0000000000    0.1136105429    0.0000000000

    0.0000000000    0.0000000000    0.1951067262

 WIGNER-SEITZ-PRIMCELL
           4
 -0.2585000E+01  0.1441329E+01 -0.2562700E+01  -0.1000000E+01 -0.0000000E+00 -0.0000000E+00
 -0.2585000E+01 -0.1441329E+01 -0.2562700E+01  -0.1000000E+01 -0.0000000E+00 -0.0000000E+00
 -0.2585000E+01 -0.1441329E+01  0.2562700E+01  -0.1000000E+01 -0.0000000E+00 -0.0000000E+00
 -0.2585000E+01  0.1441329E+01  0.2562700E+01  -0.1000000E+01 -0.0000000E+00 -0.0000000E+00
           4
 -0.2585000E+01  0.1441329E+01  0.2562700E+01  -0.5064635E+00  0.8622614E+00  0.0000000E+00
 -0.0000000E+00  0.2959671E+01  0.2562700E+01  -0.5064635E+00  0.8622614E+00  0.0000000E+00
 -0.0000000E+00  0.2959671E+01 -0.2562700E+01  -0.5064635E+00  0.8622614E+00  0.0000000E+00
 -0.2585000E+01  0.1441329E+01 -0.2562700E+01  -0.5064635E+00  0.8622614E+00  0.0000000E+00
           4
 -0.2585000E+01 -0.1441329E+01 -0.2562700E+01  -0.5064635E+00 -0.8622614E+00 -0.0000000E+00
  0.0000000E+00 -0.2959671E+01 -0.2562700E+01  -0.5064635E+00 -0.8622614E+00 -0.0000000E+00
  0.0000000E+00 -0.2959671E+01  0.2562700E+01  -0.5064635E+00 -0.8622614E+00 -0.0000000E+00
 -0.2585000E+01 -0.1441329E+01  0.2562700E+01  -0.5064635E+00 -0.8622614E+00 -0.0000000E+00
           6
 -0.2585000E+01 -0.1441329E+01 -0.2562700E+01  -0.3575756E-15  0.0000000E+00 -0.1000000E+01
 -0.2585000E+01  0.1441329E+01 -0.2562700E+01  -0.3575756E-15  0.0000000E+00 -0.1000000E+01
 -0.0000000E+00  0.2959671E+01 -0.2562700E+01  -0.3575756E-15  0.0000000E+00 -0.1000000E+01
  0.2585000E+01  0.1441329E+01 -0.2562700E+01  -0.3575756E-15  0.0000000E+00 -0.1000000E+01
  0.2585000E+01 -0.1441329E+01 -0.2562700E+01  -0.3575756E-15  0.0000000E+00 -0.1000000E+01
  0.0000000E+00 -0.2959671E+01 -0.2562700E+01  -0.3575756E-15  0.0000000E+00 -0.1000000E+01
           6
 -0.1949712E-14 -0.2959671E+01  0.2562700E+01  -0.0000000E+00 -0.0000000E+00  0.1000000E+01
  0.2585000E+01 -0.1441329E+01  0.2562700E+01  -0.0000000E+00 -0.0000000E+00  0.1000000E+01
  0.2585000E+01  0.1441329E+01  0.2562700E+01  -0.0000000E+00 -0.0000000E+00  0.1000000E+01
 -0.1949712E-14  0.2959671E+01  0.2562700E+01  -0.0000000E+00 -0.0000000E+00  0.1000000E+01
 -0.2585000E+01  0.1441329E+01  0.2562700E+01  -0.0000000E+00 -0.0000000E+00  0.1000000E+01
 -0.2585000E+01 -0.1441329E+01  0.2562700E+01  -0.0000000E+00 -0.0000000E+00  0.1000000E+01
           4
  0.9748561E-15  0.2959671E+01  0.2562700E+01   0.5064635E+00  0.8622614E+00  0.5663750E-16
  0.2585000E+01  0.1441329E+01  0.2562700E+01   0.5064635E+00  0.8622614E+00  0.5663750E-16
  0.2585000E+01  0.1441329E+01 -0.2562700E+01   0.5064635E+00  0.8622614E+00  0.5663750E-16
 -0.0000000E+00  0.2959671E+01 -0.2562700E+01   0.5064635E+00  0.8622614E+00  0.5663750E-16
           4
  0.0000000E+00 -0.2959671E+01 -0.2562700E+01   0.5064635E+00 -0.8622614E+00  0.5663750E-16
  0.2585000E+01 -0.1441329E+01 -0.2562700E+01   0.5064635E+00 -0.8622614E+00  0.5663750E-16
  0.2585000E+01 -0.1441329E+01  0.2562700E+01   0.5064635E+00 -0.8622614E+00  0.5663750E-16
  0.9748561E-15 -0.2959671E+01  0.2562700E+01   0.5064635E+00 -0.8622614E+00  0.5663750E-16
           4
  0.2585000E+01  0.1441329E+01  0.2562700E+01   0.1000000E+01  0.0000000E+00  0.8664479E-16
  0.2585000E+01 -0.1441329E+01  0.2562700E+01   0.1000000E+01  0.0000000E+00  0.8664479E-16
  0.2585000E+01 -0.1441329E+01 -0.2562700E+01   0.1000000E+01  0.0000000E+00  0.8664479E-16
  0.2585000E+01  0.1441329E+01 -0.2562700E+01   0.1000000E+01  0.0000000E+00  0.8664479E-16
 WIGNER-SEITZ-PRIMCELL_END
 WIGNER-SEITZ-CONVCELL
           4
 -0.2585000E+01 -0.4401000E+01  0.2562700E+01  -0.1000000E+01  0.5045322E-16 -0.8664479E-16
 -0.2585000E+01  0.4401000E+01  0.2562700E+01  -0.1000000E+01  0.5045322E-16 -0.8664479E-16
 -0.2585000E+01  0.4401000E+01 -0.2562700E+01  -0.1000000E+01  0.5045322E-16 -0.8664479E-16
 -0.2585000E+01 -0.4401000E+01 -0.2562700E+01  -0.1000000E+01  0.5045322E-16 -0.8664479E-16
           4
 -0.2585000E+01 -0.4401000E+01 -0.2562700E+01  -0.0000000E+00 -0.1000000E+01 -0.6031617E-16
  0.2585000E+01 -0.4401000E+01 -0.2562700E+01  -0.0000000E+00 -0.1000000E+01 -0.6031617E-16
  0.2585000E+01 -0.4401000E+01  0.2562700E+01  -0.0000000E+00 -0.1000000E+01 -0.6031617E-16
 -0.2585000E+01 -0.4401000E+01  0.2562700E+01  -0.0000000E+00 -0.1000000E+01 -0.6031617E-16
           4
 -0.2585000E+01 -0.4401000E+01 -0.2562700E+01   0.1061235E-15  0.0000000E+00 -0.1000000E+01
 -0.2585000E+01  0.4401000E+01 -0.2562700E+01   0.1061235E-15  0.0000000E+00 -0.1000000E+01
  0.2585000E+01  0.4401000E+01 -0.2562700E+01   0.1061235E-15  0.0000000E+00 -0.1000000E+01
  0.2585000E+01 -0.4401000E+01 -0.2562700E+01   0.1061235E-15  0.0000000E+00 -0.1000000E+01
           4
  0.2585000E+01 -0.4401000E+01  0.2562700E+01   0.1561415E-15 -0.0000000E+00  0.1000000E+01
  0.2585000E+01  0.4401000E+01  0.2562700E+01   0.1561415E-15 -0.0000000E+00  0.1000000E+01
 -0.2585000E+01  0.4401000E+01  0.2562700E+01   0.1561415E-15 -0.0000000E+00  0.1000000E+01
 -0.2585000E+01 -0.4401000E+01  0.2562700E+01   0.1561415E-15 -0.0000000E+00  0.1000000E+01
           4
 -0.2585000E+01  0.4401000E+01  0.2562700E+01   0.0000000E+00  0.1000000E+01  0.7375701E-16
  0.2585000E+01  0.4401000E+01  0.2562700E+01   0.0000000E+00  0.1000000E+01  0.7375701E-16
  0.2585000E+01  0.4401000E+01 -0.2562700E+01   0.0000000E+00  0.1000000E+01  0.7375701E-16
 -0.2585000E+01  0.4401000E+01 -0.2562700E+01   0.0000000E+00  0.1000000E+01  0.7375701E-16
           4
  0.2585000E+01 -0.4401000E+01 -0.2562700E+01   0.1000000E+01  0.5045322E-16 -0.8664479E-16
  0.2585000E+01  0.4401000E+01 -0.2562700E+01   0.1000000E+01  0.5045322E-16 -0.8664479E-16
  0.2585000E+01  0.4401000E+01  0.2562700E+01   0.1000000E+01  0.5045322E-16 -0.8664479E-16
  0.2585000E+01 -0.4401000E+01  0.2562700E+01   0.1000000E+01  0.5045322E-16 -0.8664479E-16
 WIGNER-SEITZ-CONVCELL_END
 BRILLOUIN-ZONE-PRIMCELL
           4
 -0.6334628E-01  0.1136105E+00 -0.9755336E-01  -0.8622614E+00  0.5064635E+00 -0.9846391E-16
 -0.1300773E+00 -0.1264387E-16 -0.9755336E-01  -0.8622614E+00  0.5064635E+00 -0.9846391E-16
 -0.1300773E+00  0.2528774E-16  0.9755336E-01  -0.8622614E+00  0.5064635E+00 -0.9846391E-16
 -0.6334628E-01  0.1136105E+00  0.9755336E-01  -0.8622614E+00  0.5064635E+00 -0.9846391E-16
           4
 -0.6334628E-01  0.1136105E+00  0.9755336E-01   0.0000000E+00  0.1000000E+01  0.7657335E-16
  0.6334628E-01  0.1136105E+00  0.9755336E-01   0.0000000E+00  0.1000000E+01  0.7657335E-16
  0.6334628E-01  0.1136105E+00 -0.9755336E-01   0.0000000E+00  0.1000000E+01  0.7657335E-16
 -0.6334628E-01  0.1136105E+00 -0.9755336E-01   0.0000000E+00  0.1000000E+01  0.7657335E-16
           4
 -0.1300773E+00 -0.1264387E-16 -0.9755336E-01  -0.8622614E+00 -0.5064635E+00  0.6748051E-16
 -0.6334628E-01 -0.1136105E+00 -0.9755336E-01  -0.8622614E+00 -0.5064635E+00  0.6748051E-16
 -0.6334628E-01 -0.1136105E+00  0.9755336E-01  -0.8622614E+00 -0.5064635E+00  0.6748051E-16
 -0.1300773E+00 -0.2528774E-16  0.9755336E-01  -0.8622614E+00 -0.5064635E+00  0.6748051E-16
           6
 -0.1300773E+00 -0.1264387E-16 -0.9755336E-01   0.0000000E+00 -0.6026019E-16 -0.1000000E+01
 -0.6334628E-01  0.1136105E+00 -0.9755336E-01   0.0000000E+00 -0.6026019E-16 -0.1000000E+01
  0.6334628E-01  0.1136105E+00 -0.9755336E-01   0.0000000E+00 -0.6026019E-16 -0.1000000E+01
  0.1300773E+00 -0.1264387E-16 -0.9755336E-01   0.0000000E+00 -0.6026019E-16 -0.1000000E+01
  0.6334628E-01 -0.1136105E+00 -0.9755336E-01   0.0000000E+00 -0.6026019E-16 -0.1000000E+01
 -0.6334628E-01 -0.1136105E+00 -0.9755336E-01   0.0000000E+00 -0.6026019E-16 -0.1000000E+01
           6
 -0.6334628E-01 -0.1136105E+00  0.9755336E-01  -0.0000000E+00 -0.6026019E-16  0.1000000E+01
  0.6334628E-01 -0.1136105E+00  0.9755336E-01  -0.0000000E+00 -0.6026019E-16  0.1000000E+01
  0.1300773E+00 -0.2528774E-16  0.9755336E-01  -0.0000000E+00 -0.6026019E-16  0.1000000E+01
  0.6334628E-01  0.1136105E+00  0.9755336E-01  -0.0000000E+00 -0.6026019E-16  0.1000000E+01
 -0.6334628E-01  0.1136105E+00  0.9755336E-01  -0.0000000E+00 -0.6026019E-16  0.1000000E+01
 -0.1300773E+00 -0.2528774E-16  0.9755336E-01  -0.0000000E+00 -0.6026019E-16  0.1000000E+01
           4
  0.6334628E-01  0.1136105E+00  0.9755336E-01   0.8622614E+00  0.5064635E+00  0.6564261E-16
  0.1300773E+00 -0.1264387E-16  0.9755336E-01   0.8622614E+00  0.5064635E+00  0.6564261E-16
  0.1300773E+00  0.1264387E-16 -0.9755336E-01   0.8622614E+00  0.5064635E+00  0.6564261E-16
  0.6334628E-01  0.1136105E+00 -0.9755336E-01   0.8622614E+00  0.5064635E+00  0.6564261E-16
           4
 -0.6334628E-01 -0.1136105E+00 -0.9755336E-01  -0.0000000E+00 -0.1000000E+01 -0.6378455E-16
  0.6334628E-01 -0.1136105E+00 -0.9755336E-01  -0.0000000E+00 -0.1000000E+01 -0.6378455E-16
  0.6334628E-01 -0.1136105E+00  0.9755336E-01  -0.0000000E+00 -0.1000000E+01 -0.6378455E-16
 -0.6334628E-01 -0.1136105E+00  0.9755336E-01  -0.0000000E+00 -0.1000000E+01 -0.6378455E-16
           4
  0.1300773E+00 -0.2528774E-16  0.9755336E-01   0.8622614E+00 -0.5064635E+00 -0.2024415E-15
  0.6334628E-01 -0.1136105E+00  0.9755336E-01   0.8622614E+00 -0.5064635E+00 -0.2024415E-15
  0.6334628E-01 -0.1136105E+00 -0.9755336E-01   0.8622614E+00 -0.5064635E+00 -0.2024415E-15
  0.1300773E+00  0.1264387E-16 -0.9755336E-01   0.8622614E+00 -0.5064635E+00 -0.2024415E-15
 BRILLOUIN-ZONE-PRIMCELL_END
 BRILLOUIN-ZONE-CONVCELL
           4
 -0.9671180E-01  0.5680527E-01  0.9755336E-01  -0.1000000E+01 -0.1221523E-15 -0.1303289E-31
 -0.9671180E-01  0.5680527E-01 -0.9755336E-01  -0.1000000E+01 -0.1221523E-15 -0.1303289E-31
 -0.9671180E-01 -0.5680527E-01 -0.9755336E-01  -0.1000000E+01 -0.1221523E-15 -0.1303289E-31
 -0.9671180E-01 -0.5680527E-01  0.9755336E-01  -0.1000000E+01 -0.1221523E-15 -0.1303289E-31
           4
 -0.9671180E-01 -0.5680527E-01 -0.9755336E-01  -0.0000000E+00 -0.1000000E+01  0.2507780E-16
  0.9671180E-01 -0.5680527E-01 -0.9755336E-01  -0.0000000E+00 -0.1000000E+01  0.2507780E-16
  0.9671180E-01 -0.5680527E-01  0.9755336E-01  -0.0000000E+00 -0.1000000E+01  0.2507780E-16
 -0.9671180E-01 -0.5680527E-01  0.9755336E-01  -0.0000000E+00 -0.1000000E+01  0.2507780E-16
           4
 -0.9671180E-01  0.5680527E-01 -0.9755336E-01   0.0000000E+00 -0.9627422E-16 -0.1000000E+01
  0.9671180E-01  0.5680527E-01 -0.9755336E-01   0.0000000E+00 -0.9627422E-16 -0.1000000E+01
  0.9671180E-01 -0.5680527E-01 -0.9755336E-01   0.0000000E+00 -0.9627422E-16 -0.1000000E+01
 -0.9671180E-01 -0.5680527E-01 -0.9755336E-01   0.0000000E+00 -0.9627422E-16 -0.1000000E+01
           4
 -0.9671180E-01 -0.5680527E-01  0.9755336E-01  -0.0000000E+00  0.1232152E-15  0.1000000E+01
  0.9671180E-01 -0.5680527E-01  0.9755336E-01  -0.0000000E+00  0.1232152E-15  0.1000000E+01
  0.9671180E-01  0.5680527E-01  0.9755336E-01  -0.0000000E+00  0.1232152E-15  0.1000000E+01
 -0.9671180E-01  0.5680527E-01  0.9755336E-01  -0.0000000E+00  0.1232152E-15  0.1000000E+01
           4
 -0.9671180E-01  0.5680527E-01  0.9755336E-01   0.0000000E+00  0.1000000E+01  0.4188337E-17
  0.9671180E-01  0.5680527E-01  0.9755336E-01   0.0000000E+00  0.1000000E+01  0.4188337E-17
  0.9671180E-01  0.5680527E-01 -0.9755336E-01   0.0000000E+00  0.1000000E+01  0.4188337E-17
 -0.9671180E-01  0.5680527E-01 -0.9755336E-01   0.0000000E+00  0.1000000E+01  0.4188337E-17
           4
  0.9671180E-01 -0.5680527E-01 -0.9755336E-01   0.1000000E+01 -0.1221523E-15  0.7112921E-16
  0.9671180E-01  0.5680527E-01 -0.9755336E-01   0.1000000E+01 -0.1221523E-15  0.7112921E-16
  0.9671180E-01  0.5680527E-01  0.9755336E-01   0.1000000E+01 -0.1221523E-15  0.7112921E-16
  0.9671180E-01 -0.5680527E-01  0.9755336E-01   0.1000000E+01 -0.1221523E-15  0.7112921E-16
 BRILLOUIN-ZONE-CONVCELL_END
 ATOMS
   76    0.0000000000    2.9339999744    0.0000000000
   76    2.5850000111    7.3349999802    0.0000000000
   76    2.5850000111    1.4670000314    0.0000000000
    3    0.0000000000    0.0000000000    0.0000000000
    3    2.5850000111    4.4010000058    0.0000000000
    8    1.3183500057    1.5755580021    1.2352213822
    8    3.9033500167    5.9765580078    1.2352213822
    8    3.9033500167    2.8254420037    1.2352213822
    8    1.2666500054    4.4010000058    1.1634657833
   76    0.0000000000    2.9339999744    5.1253999263
   76    2.5850000111    7.3349999802    5.1253999263
   76    2.5850000111    1.4670000314    5.1253999263
    3    0.0000000000    0.0000000000    5.1253999263
    3    2.5850000111    4.4010000058    5.1253999263
    3    2.5850000111    2.8078380037    2.5626999631
    3    0.0000000000    1.5931620021    2.5626999631
    3    2.5850000111    5.9941620079    2.5626999631
    3    2.5850000111    0.0000000000    2.5626999631
    8    1.2666500054    2.8254420037    3.8901785440
    8    1.2666500054    5.9765580078    3.8901785440
    8    1.3183500057    0.0000000000    3.9619341430
    8    3.9033500167    4.4010000058    3.9619341430
   76    0.0000000000    5.8680000372    0.0000000000
    3    0.0000000000    8.8020000116    0.0000000000
    8    1.3183500057    7.2264420095    1.2352213822
   76    0.0000000000    5.8680000372    5.1253999263
    3    0.0000000000    8.8020000116    5.1253999263
    3    0.0000000000    7.2088380095    2.5626999631
    3    0.0000000000    4.4010000058    2.5626999631
    3    2.5850000111    8.8020000116    2.5626999631
    8    1.3183500057    8.8020000116    3.9619341430
   76    5.1700000222    2.9339999744    0.0000000000
    3    5.1700000222    0.0000000000    0.0000000000
    8    3.8516500165    0.0000000000    1.1634657833
   76    5.1700000222    2.9339999744    5.1253999263
    3    5.1700000222    0.0000000000    5.1253999263
    3    5.1700000222    1.5931620021    2.5626999631
    8    3.8516500165    1.5755580021    3.8901785440
   76    5.1700000222    5.8680000372    0.0000000000
    3    5.1700000222    8.8020000116    0.0000000000
    8    3.8516500165    8.8020000116    1.1634657833
   76    5.1700000222    5.8680000372    5.1253999263
    3    5.1700000222    8.8020000116    5.1253999263
    3    5.1700000222    7.2088380095    2.5626999631
    3    5.1700000222    4.4010000058    2.5626999631
    8    3.8516500165    7.2264420095    3.8901785440
 FRAMES
1      0.0000000000    0.0000000000    0.0000000000      5.1700000222    0.0000000000    0.0000000000
1      0.0000000000    0.0000000000    0.0000000000      0.0000000000    8.8020000116    0.0000000000
1      0.0000000000    0.0000000000    0.0000000000      0.0000000000    0.0000000000    5.1253999263
1      0.0000000000    0.0000000000    5.1253999263      5.1700000222    0.0000000000    5.1253999263
1      0.0000000000    0.0000000000    5.1253999263      0.0000000000    8.8020000116    5.1253999263
1      0.0000000000    8.8020000116    0.0000000000      5.1700000222    8.8020000116    0.0000000000
1      0.0000000000    8.8020000116    0.0000000000      0.0000000000    8.8020000116    5.1253999263
1      0.0000000000    8.8020000116    5.1253999263      5.1700000222    8.8020000116    5.1253999263
1      5.1700000222    0.0000000000    0.0000000000      5.1700000222    8.8020000116    0.0000000000
1      5.1700000222    0.0000000000    0.0000000000      5.1700000222    0.0000000000    5.1253999263
1      5.1700000222    0.0000000000    5.1253999263      5.1700000222    8.8020000116    5.1253999263
1      5.1700000222    8.8020000116    0.0000000000      5.1700000222    8.8020000116    5.1253999263

